
---------- Begin Simulation Statistics ----------
final_tick                               5125861866000                       # Number of ticks from beginning of simulation (restored from checkpoints and never reset)
host_inst_rate                                1911314                       # Simulator instruction rate (inst/s)
host_mem_usage                                1029272                       # Number of bytes of host memory used
host_op_rate                                  3707212                       # Simulator op (including micro ops) rate (op/s)
host_seconds                                   112.47                       # Real time elapsed on the host
host_tick_rate                            45539118222                       # Simulator tick rate (ticks/s)
sim_freq                                 1000000000000                       # Frequency of simulated ticks
sim_insts                                   214964961                       # Number of instructions simulated
sim_ops                                     416949781                       # Number of ops (including micro ops) simulated
sim_seconds                                  5.121787                       # Number of seconds simulated
sim_ticks                                5121787014500                       # Number of ticks simulated
system.cpu.committedInsts                           0                       # Number of instructions committed
system.cpu.committedOps                             0                       # Number of ops (including micro ops) committed
system.cpu.dtb.rdAccesses                           0                       # TLB accesses on read requests
system.cpu.dtb.rdMisses                             0                       # TLB misses on read requests
system.cpu.dtb.wrAccesses                           0                       # TLB accesses on write requests
system.cpu.dtb.wrMisses                             0                       # TLB misses on write requests
system.cpu.idle_fraction                            0                       # Percentage of idle cycles
system.cpu.itb.rdAccesses                           0                       # TLB accesses on read requests
system.cpu.itb.rdMisses                             0                       # TLB misses on read requests
system.cpu.itb.wrAccesses                           0                       # TLB accesses on write requests
system.cpu.itb.wrMisses                             0                       # TLB misses on write requests
system.cpu.kern.inst.arm                            0                       # number of arm instructions executed
system.cpu.kern.inst.quiesce                        0                       # number of quiesce instructions executed
system.cpu.not_idle_fraction                        1                       # Percentage of non-idle cycles
system.cpu.numCycles                                0                       # number of cpu cycles simulated
system.cpu.numWorkItemsCompleted                    0                       # number of work items this cpu completed
system.cpu.numWorkItemsStarted                      0                       # number of work items this cpu started
system.cpu.num_busy_cycles                          0                       # Number of busy cycles
system.cpu.num_conditional_control_insts            0                       # number of instructions that are conditional controls
system.cpu.num_fp_alu_accesses                      0                       # Number of float alu accesses
system.cpu.num_fp_insts                             0                       # number of float instructions
system.cpu.num_fp_register_reads                    0                       # number of times the floating registers were read
system.cpu.num_fp_register_writes                   0                       # number of times the floating registers were written
system.cpu.num_func_calls                           0                       # number of times a function call or return occured
system.cpu.num_idle_cycles                          0                       # Number of idle cycles
system.cpu.num_int_alu_accesses                     0                       # Number of integer alu accesses
system.cpu.num_int_insts                            0                       # number of integer instructions
system.cpu.num_int_register_reads                   0                       # number of times the integer registers were read
system.cpu.num_int_register_writes                  0                       # number of times the integer registers were written
system.cpu.num_load_insts                           0                       # Number of load instructions
system.cpu.num_mem_refs                             0                       # number of memory refs
system.cpu.num_store_insts                          0                       # Number of store instructions
system.cpu.num_vec_alu_accesses                     0                       # Number of vector alu accesses
system.cpu.num_vec_insts                            0                       # number of vector instructions
system.cpu.num_vec_register_reads                   0                       # number of times the vector registers were read
system.cpu.num_vec_register_writes                  0                       # number of times the vector registers were written
system.cpu.op_class::No_OpClass                     0                       # Class of executed instruction
system.cpu.op_class::IntAlu                         0                       # Class of executed instruction
system.cpu.op_class::IntMult                        0                       # Class of executed instruction
system.cpu.op_class::IntDiv                         0                       # Class of executed instruction
system.cpu.op_class::FloatAdd                       0                       # Class of executed instruction
system.cpu.op_class::FloatCmp                       0                       # Class of executed instruction
system.cpu.op_class::FloatCvt                       0                       # Class of executed instruction
system.cpu.op_class::FloatMult                      0                       # Class of executed instruction
system.cpu.op_class::FloatMultAcc                   0                       # Class of executed instruction
system.cpu.op_class::FloatDiv                       0                       # Class of executed instruction
system.cpu.op_class::FloatMisc                      0                       # Class of executed instruction
system.cpu.op_class::FloatSqrt                      0                       # Class of executed instruction
system.cpu.op_class::SimdAdd                        0                       # Class of executed instruction
system.cpu.op_class::SimdAddAcc                     0                       # Class of executed instruction
system.cpu.op_class::SimdAlu                        0                       # Class of executed instruction
system.cpu.op_class::SimdCmp                        0                       # Class of executed instruction
system.cpu.op_class::SimdCvt                        0                       # Class of executed instruction
system.cpu.op_class::SimdMisc                       0                       # Class of executed instruction
system.cpu.op_class::SimdMult                       0                       # Class of executed instruction
system.cpu.op_class::SimdMultAcc                    0                       # Class of executed instruction
system.cpu.op_class::SimdShift                      0                       # Class of executed instruction
system.cpu.op_class::SimdShiftAcc                   0                       # Class of executed instruction
system.cpu.op_class::SimdDiv                        0                       # Class of executed instruction
system.cpu.op_class::SimdSqrt                       0                       # Class of executed instruction
system.cpu.op_class::SimdFloatAdd                   0                       # Class of executed instruction
system.cpu.op_class::SimdFloatAlu                   0                       # Class of executed instruction
system.cpu.op_class::SimdFloatCmp                   0                       # Class of executed instruction
system.cpu.op_class::SimdFloatCvt                   0                       # Class of executed instruction
system.cpu.op_class::SimdFloatDiv                   0                       # Class of executed instruction
system.cpu.op_class::SimdFloatMisc                  0                       # Class of executed instruction
system.cpu.op_class::SimdFloatMult                  0                       # Class of executed instruction
system.cpu.op_class::SimdFloatMultAcc               0                       # Class of executed instruction
system.cpu.op_class::SimdFloatSqrt                  0                       # Class of executed instruction
system.cpu.op_class::SimdReduceAdd                  0                       # Class of executed instruction
system.cpu.op_class::SimdReduceAlu                  0                       # Class of executed instruction
system.cpu.op_class::SimdReduceCmp                  0                       # Class of executed instruction
system.cpu.op_class::SimdFloatReduceAdd             0                       # Class of executed instruction
system.cpu.op_class::SimdFloatReduceCmp             0                       # Class of executed instruction
system.cpu.op_class::SimdAes                        0                       # Class of executed instruction
system.cpu.op_class::SimdAesMix                     0                       # Class of executed instruction
system.cpu.op_class::SimdSha1Hash                   0                       # Class of executed instruction
system.cpu.op_class::SimdSha1Hash2                  0                       # Class of executed instruction
system.cpu.op_class::SimdSha256Hash                 0                       # Class of executed instruction
system.cpu.op_class::SimdSha256Hash2                0                       # Class of executed instruction
system.cpu.op_class::SimdShaSigma2                  0                       # Class of executed instruction
system.cpu.op_class::SimdShaSigma3                  0                       # Class of executed instruction
system.cpu.op_class::SimdPredAlu                    0                       # Class of executed instruction
system.cpu.op_class::MemRead                        0                       # Class of executed instruction
system.cpu.op_class::MemWrite                       0                       # Class of executed instruction
system.cpu.op_class::FloatMemRead                   0                       # Class of executed instruction
system.cpu.op_class::FloatMemWrite                  0                       # Class of executed instruction
system.cpu.op_class::IprAccess                      0                       # Class of executed instruction
system.cpu.op_class::InstPrefetch                   0                       # Class of executed instruction
system.cpu.op_class::total                          0                       # Class of executed instruction
system.l3bus.snoop_filter.hit_multi_requests            0                       # Number of requests hitting in the snoop filter with multiple (>1) holders of the requested data.
system.l3bus.snoop_filter.hit_multi_snoops            0                       # Number of snoops hitting in the snoop filter with multiple (>1) holders of the requested data.
system.l3bus.snoop_filter.hit_single_requests       357296                       # Number of requests hitting in the snoop filter with a single holder of the requested data.
system.l3bus.snoop_filter.hit_single_snoops         3765                       # Number of snoops hitting in the snoop filter with a single holder of the requested data.
system.l3bus.snoop_filter.tot_requests         716274                       # Total number of requests made to the snoop filter.
system.l3bus.snoop_filter.tot_snoops             3765                       # Total number of snoops made to the snoop filter.
system.membus.snoop_filter.hit_multi_requests          566                       # Number of requests hitting in the snoop filter with multiple (>1) holders of the requested data.
system.membus.snoop_filter.hit_multi_snoops            0                       # Number of snoops hitting in the snoop filter with multiple (>1) holders of the requested data.
system.membus.snoop_filter.hit_single_requests        69505                       # Number of requests hitting in the snoop filter with a single holder of the requested data.
system.membus.snoop_filter.hit_single_snoops            0                       # Number of snoops hitting in the snoop filter with a single holder of the requested data.
system.membus.snoop_filter.tot_requests        238716                       # Total number of requests made to the snoop filter.
system.membus.snoop_filter.tot_snoops               0                       # Total number of snoops made to the snoop filter.
system.pc.south_bridge.ide.disks.dma_read_bytes        36864                       # Number of bytes transfered via DMA reads (not PRD).
system.pc.south_bridge.ide.disks.dma_read_full_pages            9                       # Number of full page size DMA reads (not PRD).
system.pc.south_bridge.ide.disks.dma_read_txs            9                       # Number of DMA read transactions (not PRD).
system.pc.south_bridge.ide.disks.dma_write_bytes      2722816                       # Number of bytes transfered via DMA writes.
system.pc.south_bridge.ide.disks.dma_write_full_pages          664                       # Number of full page size DMA writes.
system.pc.south_bridge.ide.disks.dma_write_txs          668                       # Number of DMA write transactions.
system.switch_cpus.Branches                  44780204                       # Number of branches fetched
system.switch_cpus.committedInsts           211130096                       # Number of instructions committed
system.switch_cpus.committedOps             410103877                       # Number of ops (including micro ops) committed
system.switch_cpus.dtb.rdAccesses            17305319                       # TLB accesses on read requests
system.switch_cpus.dtb.rdMisses                  2858                       # TLB misses on read requests
system.switch_cpus.dtb.wrAccesses             8013048                       # TLB accesses on write requests
system.switch_cpus.dtb.wrMisses                   554                       # TLB misses on write requests
system.switch_cpus.idle_fraction             0.955473                       # Percentage of idle cycles
system.switch_cpus.itb.rdAccesses                   0                       # TLB accesses on read requests
system.switch_cpus.itb.rdMisses                     0                       # TLB misses on read requests
system.switch_cpus.itb.wrAccesses           257139681                       # TLB accesses on write requests
system.switch_cpus.itb.wrMisses                  1693                       # TLB misses on write requests
system.switch_cpus.kern.inst.arm                    0                       # number of arm instructions executed
system.switch_cpus.kern.inst.quiesce                0                       # number of quiesce instructions executed
system.switch_cpus.not_idle_fraction         0.044527                       # Percentage of non-idle cycles
system.switch_cpus.numCycles              10243577622                       # number of cpu cycles simulated
system.switch_cpus.numWorkItemsCompleted            0                       # number of work items this cpu completed
system.switch_cpus.numWorkItemsStarted              0                       # number of work items this cpu started
system.switch_cpus.num_busy_cycles       456115026.879157                       # Number of busy cycles
system.switch_cpus.num_cc_register_reads    246120210                       # number of times the CC registers were read
system.switch_cpus.num_cc_register_writes    167950199                       # number of times the CC registers were written
system.switch_cpus.num_conditional_control_insts     41933841                       # number of instructions that are conditional controls
system.switch_cpus.num_fp_alu_accesses          41144                       # Number of float alu accesses
system.switch_cpus.num_fp_insts                 41144                       # number of float instructions
system.switch_cpus.num_fp_register_reads        67816                       # number of times the floating registers were read
system.switch_cpus.num_fp_register_writes        32733                       # number of times the floating registers were written
system.switch_cpus.num_func_calls             2094247                       # number of times a function call or return occured
system.switch_cpus.num_idle_cycles       9787462595.120842                       # Number of idle cycles
system.switch_cpus.num_int_alu_accesses     373632327                       # Number of integer alu accesses
system.switch_cpus.num_int_insts            373632327                       # number of integer instructions
system.switch_cpus.num_int_register_reads    653752100                       # number of times the integer registers were read
system.switch_cpus.num_int_register_writes    321304237                       # number of times the integer registers were written
system.switch_cpus.num_load_insts            27308141                       # Number of load instructions
system.switch_cpus.num_mem_refs              35325274                       # number of memory refs
system.switch_cpus.num_store_insts            8017133                       # Number of store instructions
system.switch_cpus.num_vec_alu_accesses             0                       # Number of vector alu accesses
system.switch_cpus.num_vec_insts                    0                       # number of vector instructions
system.switch_cpus.num_vec_register_reads            0                       # number of times the vector registers were read
system.switch_cpus.num_vec_register_writes            0                       # number of times the vector registers were written
system.switch_cpus.op_class::No_OpClass        145644      0.04%      0.04% # Class of executed instruction
system.switch_cpus.op_class::IntAlu         374373491     91.29%     91.32% # Class of executed instruction
system.switch_cpus.op_class::IntMult           133190      0.03%     91.36% # Class of executed instruction
system.switch_cpus.op_class::IntDiv            100064      0.02%     91.38% # Class of executed instruction
system.switch_cpus.op_class::FloatAdd             759      0.00%     91.38% # Class of executed instruction
system.switch_cpus.op_class::FloatCmp               0      0.00%     91.38% # Class of executed instruction
system.switch_cpus.op_class::FloatCvt              16      0.00%     91.38% # Class of executed instruction
system.switch_cpus.op_class::FloatMult              0      0.00%     91.38% # Class of executed instruction
system.switch_cpus.op_class::FloatMultAcc            0      0.00%     91.38% # Class of executed instruction
system.switch_cpus.op_class::FloatDiv               0      0.00%     91.38% # Class of executed instruction
system.switch_cpus.op_class::FloatMisc              0      0.00%     91.38% # Class of executed instruction
system.switch_cpus.op_class::FloatSqrt              0      0.00%     91.38% # Class of executed instruction
system.switch_cpus.op_class::SimdAdd             1308      0.00%     91.38% # Class of executed instruction
system.switch_cpus.op_class::SimdAddAcc             0      0.00%     91.38% # Class of executed instruction
system.switch_cpus.op_class::SimdAlu             4052      0.00%     91.38% # Class of executed instruction
system.switch_cpus.op_class::SimdCmp                0      0.00%     91.38% # Class of executed instruction
system.switch_cpus.op_class::SimdCvt             9520      0.00%     91.38% # Class of executed instruction
system.switch_cpus.op_class::SimdMisc           12993      0.00%     91.39% # Class of executed instruction
system.switch_cpus.op_class::SimdMult               0      0.00%     91.39% # Class of executed instruction
system.switch_cpus.op_class::SimdMultAcc            0      0.00%     91.39% # Class of executed instruction
system.switch_cpus.op_class::SimdShift            616      0.00%     91.39% # Class of executed instruction
system.switch_cpus.op_class::SimdShiftAcc            0      0.00%     91.39% # Class of executed instruction
system.switch_cpus.op_class::SimdDiv                0      0.00%     91.39% # Class of executed instruction
system.switch_cpus.op_class::SimdSqrt               0      0.00%     91.39% # Class of executed instruction
system.switch_cpus.op_class::SimdFloatAdd            0      0.00%     91.39% # Class of executed instruction
system.switch_cpus.op_class::SimdFloatAlu            0      0.00%     91.39% # Class of executed instruction
system.switch_cpus.op_class::SimdFloatCmp            0      0.00%     91.39% # Class of executed instruction
system.switch_cpus.op_class::SimdFloatCvt            0      0.00%     91.39% # Class of executed instruction
system.switch_cpus.op_class::SimdFloatDiv            0      0.00%     91.39% # Class of executed instruction
system.switch_cpus.op_class::SimdFloatMisc            0      0.00%     91.39% # Class of executed instruction
system.switch_cpus.op_class::SimdFloatMult            0      0.00%     91.39% # Class of executed instruction
system.switch_cpus.op_class::SimdFloatMultAcc            0      0.00%     91.39% # Class of executed instruction
system.switch_cpus.op_class::SimdFloatSqrt            0      0.00%     91.39% # Class of executed instruction
system.switch_cpus.op_class::SimdReduceAdd            0      0.00%     91.39% # Class of executed instruction
system.switch_cpus.op_class::SimdReduceAlu            0      0.00%     91.39% # Class of executed instruction
system.switch_cpus.op_class::SimdReduceCmp            0      0.00%     91.39% # Class of executed instruction
system.switch_cpus.op_class::SimdFloatReduceAdd            0      0.00%     91.39% # Class of executed instruction
system.switch_cpus.op_class::SimdFloatReduceCmp            0      0.00%     91.39% # Class of executed instruction
system.switch_cpus.op_class::SimdAes                0      0.00%     91.39% # Class of executed instruction
system.switch_cpus.op_class::SimdAesMix             0      0.00%     91.39% # Class of executed instruction
system.switch_cpus.op_class::SimdSha1Hash            0      0.00%     91.39% # Class of executed instruction
system.switch_cpus.op_class::SimdSha1Hash2            0      0.00%     91.39% # Class of executed instruction
system.switch_cpus.op_class::SimdSha256Hash            0      0.00%     91.39% # Class of executed instruction
system.switch_cpus.op_class::SimdSha256Hash2            0      0.00%     91.39% # Class of executed instruction
system.switch_cpus.op_class::SimdShaSigma2            0      0.00%     91.39% # Class of executed instruction
system.switch_cpus.op_class::SimdShaSigma3            0      0.00%     91.39% # Class of executed instruction
system.switch_cpus.op_class::SimdPredAlu            0      0.00%     91.39% # Class of executed instruction
system.switch_cpus.op_class::MemRead         27298243      6.66%     98.04% # Class of executed instruction
system.switch_cpus.op_class::MemWrite         8016986      1.95%    100.00% # Class of executed instruction
system.switch_cpus.op_class::FloatMemRead         7362      0.00%    100.00% # Class of executed instruction
system.switch_cpus.op_class::FloatMemWrite          147      0.00%    100.00% # Class of executed instruction
system.switch_cpus.op_class::IprAccess              0      0.00%    100.00% # Class of executed instruction
system.switch_cpus.op_class::InstPrefetch            0      0.00%    100.00% # Class of executed instruction
system.switch_cpus.op_class::total          410104391                       # Class of executed instruction
system.tol2bus.snoop_filter.hit_multi_requests        12241                       # Number of requests hitting in the snoop filter with multiple (>1) holders of the requested data.
system.tol2bus.snoop_filter.hit_multi_snoops            4                       # Number of snoops hitting in the snoop filter with multiple (>1) holders of the requested data.
system.tol2bus.snoop_filter.hit_single_requests      2047713                       # Number of requests hitting in the snoop filter with a single holder of the requested data.
system.tol2bus.snoop_filter.hit_single_snoops         4881                       # Number of snoops hitting in the snoop filter with a single holder of the requested data.
system.tol2bus.snoop_filter.tot_requests      4103843                       # Total number of requests made to the snoop filter.
system.tol2bus.snoop_filter.tot_snoops           4885                       # Total number of snoops made to the snoop filter.
system.bridge.power_state.pwrStateResidencyTicks::UNDEFINED 5125861866000                       # Cumulative time (in ticks) in various power states
system.voltage_domain.voltage                       1                       # Voltage in Volts
system.iocache.demand_misses::.pc.south_bridge.ide        43326                       # number of demand (read+write) misses
system.iocache.demand_misses::total             43326                       # number of demand (read+write) misses
system.iocache.overall_misses::.pc.south_bridge.ide        43326                       # number of overall misses
system.iocache.overall_misses::total            43326                       # number of overall misses
system.iocache.demand_accesses::.pc.south_bridge.ide        43326                       # number of demand (read+write) accesses
system.iocache.demand_accesses::total           43326                       # number of demand (read+write) accesses
system.iocache.overall_accesses::.pc.south_bridge.ide        43326                       # number of overall (read+write) accesses
system.iocache.overall_accesses::total          43326                       # number of overall (read+write) accesses
system.iocache.demand_miss_rate::.pc.south_bridge.ide            1                       # miss rate for demand accesses
system.iocache.demand_miss_rate::total              1                       # miss rate for demand accesses
system.iocache.overall_miss_rate::.pc.south_bridge.ide            1                       # miss rate for overall accesses
system.iocache.overall_miss_rate::total             1                       # miss rate for overall accesses
system.iocache.blocked_cycles::no_mshrs             0                       # number of cycles access was blocked
system.iocache.blocked_cycles::no_targets            0                       # number of cycles access was blocked
system.iocache.blocked::no_mshrs                    0                       # number of cycles access was blocked
system.iocache.blocked::no_targets                  0                       # number of cycles access was blocked
system.iocache.avg_blocked_cycles::no_mshrs          nan                       # average number of cycles each access was blocked
system.iocache.avg_blocked_cycles::no_targets          nan                       # average number of cycles each access was blocked
system.iocache.writebacks::.writebacks          42515                       # number of writebacks
system.iocache.writebacks::total                42515                       # number of writebacks
system.iocache.replacements                     43295                       # number of replacements
system.iocache.ReadReq_misses::.pc.south_bridge.ide          782                       # number of ReadReq misses
system.iocache.ReadReq_misses::total              782                       # number of ReadReq misses
system.iocache.ReadReq_accesses::.pc.south_bridge.ide          782                       # number of ReadReq accesses(hits+misses)
system.iocache.ReadReq_accesses::total            782                       # number of ReadReq accesses(hits+misses)
system.iocache.ReadReq_miss_rate::.pc.south_bridge.ide            1                       # miss rate for ReadReq accesses
system.iocache.ReadReq_miss_rate::total             1                       # miss rate for ReadReq accesses
system.iocache.WriteLineReq_misses::.pc.south_bridge.ide        42544                       # number of WriteLineReq misses
system.iocache.WriteLineReq_misses::total        42544                       # number of WriteLineReq misses
system.iocache.WriteLineReq_accesses::.pc.south_bridge.ide        42544                       # number of WriteLineReq accesses(hits+misses)
system.iocache.WriteLineReq_accesses::total        42544                       # number of WriteLineReq accesses(hits+misses)
system.iocache.WriteLineReq_miss_rate::.pc.south_bridge.ide            1                       # miss rate for WriteLineReq accesses
system.iocache.WriteLineReq_miss_rate::total            1                       # miss rate for WriteLineReq accesses
system.iocache.power_state.pwrStateResidencyTicks::UNDEFINED 5125861866000                       # Cumulative time (in ticks) in various power states
system.iocache.tags.tagsinuse                0.109043                       # Cycle average of tags in use
system.iocache.tags.total_refs                  43310                       # Total number of references to valid blocks.
system.iocache.tags.sampled_refs                43310                       # Sample count of references to valid blocks.
system.iocache.tags.avg_refs                        1                       # Average number of references to valid blocks.
system.iocache.tags.warmup_cycle         5006508274501                       # Cycle when the warmup percentage was hit.
system.iocache.tags.occ_blocks::.pc.south_bridge.ide     0.109043                       # Average occupied blocks per requestor
system.iocache.tags.occ_percent::.pc.south_bridge.ide     0.006815                       # Average percentage of cache occupancy
system.iocache.tags.occ_percent::total       0.006815                       # Average percentage of cache occupancy
system.iocache.tags.occ_task_id_blocks::1023           16                       # Occupied blocks per task id
system.iocache.tags.age_task_id_blocks_1023::2           16                       # Occupied blocks per task id
system.iocache.tags.occ_task_id_percent::1023            1                       # Percentage of cache occupancy per task id
system.iocache.tags.tag_accesses               389934                       # Number of tag accesses
system.iocache.tags.data_accesses              389934                       # Number of data accesses
system.iocache.tags.power_state.pwrStateResidencyTicks::UNDEFINED 5125861866000                       # Cumulative time (in ticks) in various power states
system.membus.trans_dist::ReadReq            14010751                       # Transaction distribution
system.membus.trans_dist::ReadResp           14039762                       # Transaction distribution
system.membus.trans_dist::WriteReq              14098                       # Transaction distribution
system.membus.trans_dist::WriteResp             14098                       # Transaction distribution
system.membus.trans_dist::WritebackDirty        54079                       # Transaction distribution
system.membus.trans_dist::CleanEvict             1434                       # Transaction distribution
system.membus.trans_dist::UpgradeReq              406                       # Transaction distribution
system.membus.trans_dist::UpgradeResp             124                       # Transaction distribution
system.membus.trans_dist::ReadExReq            111242                       # Transaction distribution
system.membus.trans_dist::ReadExResp           111242                       # Transaction distribution
system.membus.trans_dist::ReadSharedReq         29011                       # Transaction distribution
system.membus.trans_dist::InvalidateReq         42544                       # Transaction distribution
system.membus.trans_dist::InvalidateResp        42544                       # Transaction distribution
system.membus.pkt_count_system.apicbridge.master::system.cpu.interrupts.int_slave         4036                       # Packet count per connected master and slave (bytes)
system.membus.pkt_count_system.apicbridge.master::total         4036                       # Packet count per connected master and slave (bytes)
system.membus.pkt_count_system.iocache.mem_side::system.mem_ctrls.port       129947                       # Packet count per connected master and slave (bytes)
system.membus.pkt_count_system.iocache.mem_side::total       129947                       # Packet count per connected master and slave (bytes)
system.membus.pkt_count_system.l3.mem_side::system.bridge.slave     20039074                       # Packet count per connected master and slave (bytes)
system.membus.pkt_count_system.l3.mem_side::system.cpu.interrupts.pio      8006588                       # Packet count per connected master and slave (bytes)
system.membus.pkt_count_system.l3.mem_side::system.mem_ctrls.port       291690                       # Packet count per connected master and slave (bytes)
system.membus.pkt_count_system.l3.mem_side::total     28337352                       # Packet count per connected master and slave (bytes)
system.membus.pkt_count::total               28471335                       # Packet count per connected master and slave (bytes)
system.membus.pkt_size_system.apicbridge.master::system.cpu.interrupts.int_slave         8072                       # Cumulative packet size per connected master and slave (bytes)
system.membus.pkt_size_system.apicbridge.master::total         8072                       # Cumulative packet size per connected master and slave (bytes)
system.membus.pkt_size_system.iocache.mem_side::system.mem_ctrls.port      2771008                       # Cumulative packet size per connected master and slave (bytes)
system.membus.pkt_size_system.iocache.mem_side::total      2771008                       # Cumulative packet size per connected master and slave (bytes)
system.membus.pkt_size_system.l3.mem_side::system.bridge.slave     10024903                       # Cumulative packet size per connected master and slave (bytes)
system.membus.pkt_size_system.l3.mem_side::system.cpu.interrupts.pio     16013173                       # Cumulative packet size per connected master and slave (bytes)
system.membus.pkt_size_system.l3.mem_side::system.mem_ctrls.port      9666240                       # Cumulative packet size per connected master and slave (bytes)
system.membus.pkt_size_system.l3.mem_side::total     35704316                       # Cumulative packet size per connected master and slave (bytes)
system.membus.pkt_size::total                38483396                       # Cumulative packet size per connected master and slave (bytes)
system.membus.snoops                                0                       # Total snoops (count)
system.membus.snoopTraffic                          0                       # Total snoop traffic (bytes)
system.membus.snoop_fanout::samples          14208052                       # Request fanout histogram
system.membus.snoop_fanout::mean             0.000996                       # Request fanout histogram
system.membus.snoop_fanout::stdev            0.031540                       # Request fanout histogram
system.membus.snoop_fanout::underflows              0      0.00%      0.00% # Request fanout histogram
system.membus.snoop_fanout::0                14193904     99.90%     99.90% # Request fanout histogram
system.membus.snoop_fanout::1                   14148      0.10%    100.00% # Request fanout histogram
system.membus.snoop_fanout::2                       0      0.00%    100.00% # Request fanout histogram
system.membus.snoop_fanout::overflows               0      0.00%    100.00% # Request fanout histogram
system.membus.snoop_fanout::min_value               0                       # Request fanout histogram
system.membus.snoop_fanout::max_value               1                       # Request fanout histogram
system.membus.snoop_fanout::total            14208052                       # Request fanout histogram
system.membus.badaddr_responder.power_state.pwrStateResidencyTicks::UNDEFINED 5125861866000                       # Cumulative time (in ticks) in various power states
system.membus.power_state.pwrStateResidencyTicks::UNDEFINED 5125861866000                       # Cumulative time (in ticks) in various power states
system.l3bus.trans_dist::ReadReq             14010751                       # Transaction distribution
system.l3bus.trans_dist::ReadResp            14180451                       # Transaction distribution
system.l3bus.trans_dist::WriteReq               12080                       # Transaction distribution
system.l3bus.trans_dist::WriteResp              12080                       # Transaction distribution
system.l3bus.trans_dist::WritebackDirty        345108                       # Transaction distribution
system.l3bus.trans_dist::CleanEvict             11768                       # Transaction distribution
system.l3bus.trans_dist::UpgradeReq               410                       # Transaction distribution
system.l3bus.trans_dist::UpgradeResp              128                       # Transaction distribution
system.l3bus.trans_dist::ReadExReq             189288                       # Transaction distribution
system.l3bus.trans_dist::ReadExResp            189288                       # Transaction distribution
system.l3bus.trans_dist::ReadSharedReq         169700                       # Transaction distribution
system.l3bus.pkt_count_system.l2.mem_side::system.l3.cpu_side     29121052                       # Packet count per connected master and slave (bytes)
system.l3bus.pkt_size_system.l2.mem_side::system.l3.cpu_side     71100220                       # Cumulative packet size per connected master and slave (bytes)
system.l3bus.snoops                             29763                       # Total snoops (count)
system.l3bus.snoopTraffic                      740096                       # Total snoop traffic (bytes)
system.l3bus.snoop_fanout::samples           14408753                       # Request fanout histogram
system.l3bus.snoop_fanout::mean              0.000261                       # Request fanout histogram
system.l3bus.snoop_fanout::stdev             0.016163                       # Request fanout histogram
system.l3bus.snoop_fanout::underflows               0      0.00%      0.00% # Request fanout histogram
system.l3bus.snoop_fanout::0                 14404988     99.97%     99.97% # Request fanout histogram
system.l3bus.snoop_fanout::1                     3765      0.03%    100.00% # Request fanout histogram
system.l3bus.snoop_fanout::overflows                0      0.00%    100.00% # Request fanout histogram
system.l3bus.snoop_fanout::min_value                0                       # Request fanout histogram
system.l3bus.snoop_fanout::max_value                1                       # Request fanout histogram
system.l3bus.snoop_fanout::total             14408753                       # Request fanout histogram
system.l3bus.power_state.pwrStateResidencyTicks::UNDEFINED 5125861866000                       # Cumulative time (in ticks) in various power states
system.tol2bus.trans_dist::ReadReq           14010751                       # Transaction distribution
system.tol2bus.trans_dist::ReadResp          15765236                       # Transaction distribution
system.tol2bus.trans_dist::WriteReq             12080                       # Transaction distribution
system.tol2bus.trans_dist::WriteResp            12080                       # Transaction distribution
system.tol2bus.trans_dist::WritebackDirty      1374620                       # Transaction distribution
system.tol2bus.trans_dist::WritebackClean       628685                       # Transaction distribution
system.tol2bus.trans_dist::CleanEvict           47008                       # Transaction distribution
system.tol2bus.trans_dist::UpgradeReq            1382                       # Transaction distribution
system.tol2bus.trans_dist::UpgradeResp           1382                       # Transaction distribution
system.tol2bus.trans_dist::ReadExReq           297663                       # Transaction distribution
system.tol2bus.trans_dist::ReadExResp          297663                       # Transaction distribution
system.tol2bus.trans_dist::ReadCleanReq        628868                       # Transaction distribution
system.tol2bus.trans_dist::ReadSharedReq      1125617                       # Transaction distribution
system.tol2bus.pkt_count_system.cpu.icache.mem_side::system.l2.cpu_side      1886421                       # Packet count per connected master and slave (bytes)
system.tol2bus.pkt_count_system.cpu.dcache.mem_side::system.l2.cpu_side     32292147                       # Packet count per connected master and slave (bytes)
system.tol2bus.pkt_count_system.cpu.itb_walker_cache.mem_side::system.l2.cpu_side        12800                       # Packet count per connected master and slave (bytes)
system.tol2bus.pkt_count_system.cpu.dtb_walker_cache.mem_side::system.l2.cpu_side        11667                       # Packet count per connected master and slave (bytes)
system.tol2bus.pkt_count::total              34203035                       # Packet count per connected master and slave (bytes)
system.tol2bus.pkt_size_system.cpu.icache.mem_side::system.l2.cpu_side     80483392                       # Cumulative packet size per connected master and slave (bytes)
system.tol2bus.pkt_size_system.cpu.dcache.mem_side::system.l2.cpu_side    204464508                       # Cumulative packet size per connected master and slave (bytes)
system.tol2bus.pkt_size_system.cpu.itb_walker_cache.mem_side::system.l2.cpu_side       316096                       # Cumulative packet size per connected master and slave (bytes)
system.tol2bus.pkt_size_system.cpu.dtb_walker_cache.mem_side::system.l2.cpu_side       323072                       # Cumulative packet size per connected master and slave (bytes)
system.tol2bus.pkt_size::total              285587068                       # Cumulative packet size per connected master and slave (bytes)
system.tol2bus.snoops                          365336                       # Total snoops (count)
system.tol2bus.snoopTraffic                  22087040                       # Total snoop traffic (bytes)
system.tol2bus.snoop_fanout::samples         16441165                       # Request fanout histogram
system.tol2bus.snoop_fanout::mean            0.001071                       # Request fanout histogram
system.tol2bus.snoop_fanout::stdev           0.038201                       # Request fanout histogram
system.tol2bus.snoop_fanout::underflows             0      0.00%      0.00% # Request fanout histogram
system.tol2bus.snoop_fanout::0               16426765     99.91%     99.91% # Request fanout histogram
system.tol2bus.snoop_fanout::1                  11196      0.07%     99.98% # Request fanout histogram
system.tol2bus.snoop_fanout::2                   3204      0.02%    100.00% # Request fanout histogram
system.tol2bus.snoop_fanout::3                      0      0.00%    100.00% # Request fanout histogram
system.tol2bus.snoop_fanout::4                      0      0.00%    100.00% # Request fanout histogram
system.tol2bus.snoop_fanout::overflows              0      0.00%    100.00% # Request fanout histogram
system.tol2bus.snoop_fanout::min_value              0                       # Request fanout histogram
system.tol2bus.snoop_fanout::max_value              2                       # Request fanout histogram
system.tol2bus.snoop_fanout::total           16441165                       # Request fanout histogram
system.tol2bus.power_state.pwrStateResidencyTicks::UNDEFINED 5125861866000                       # Cumulative time (in ticks) in various power states
system.clk_domain.clock                          1000                       # Clock period in ticks
system.apicbridge.power_state.pwrStateResidencyTicks::UNDEFINED 5125861866000                       # Cumulative time (in ticks) in various power states
system.pc.fake_com_4.power_state.pwrStateResidencyTicks::UNDEFINED 5125861866000                       # Cumulative time (in ticks) in various power states
system.pc.fake_com_2.power_state.pwrStateResidencyTicks::UNDEFINED 5125861866000                       # Cumulative time (in ticks) in various power states
system.pc.fake_com_3.power_state.pwrStateResidencyTicks::UNDEFINED 5125861866000                       # Cumulative time (in ticks) in various power states
system.pc.south_bridge.io_apic.power_state.pwrStateResidencyTicks::UNDEFINED 5125861866000                       # Cumulative time (in ticks) in various power states
system.pc.south_bridge.pic1.power_state.pwrStateResidencyTicks::UNDEFINED 5125861866000                       # Cumulative time (in ticks) in various power states
system.pc.south_bridge.pic2.power_state.pwrStateResidencyTicks::UNDEFINED 5125861866000                       # Cumulative time (in ticks) in various power states
system.pc.south_bridge.dma1.power_state.pwrStateResidencyTicks::UNDEFINED 5125861866000                       # Cumulative time (in ticks) in various power states
system.pc.south_bridge.speaker.power_state.pwrStateResidencyTicks::UNDEFINED 5125861866000                       # Cumulative time (in ticks) in various power states
system.pc.south_bridge.keyboard.power_state.pwrStateResidencyTicks::UNDEFINED 5125861866000                       # Cumulative time (in ticks) in various power states
system.pc.south_bridge.ide.power_state.pwrStateResidencyTicks::UNDEFINED 5125861866000                       # Cumulative time (in ticks) in various power states
system.pc.south_bridge.pit.power_state.pwrStateResidencyTicks::UNDEFINED 5125861866000                       # Cumulative time (in ticks) in various power states
system.pc.south_bridge.cmos.power_state.pwrStateResidencyTicks::UNDEFINED 5125861866000                       # Cumulative time (in ticks) in various power states
system.pc.i_dont_exist2.power_state.pwrStateResidencyTicks::UNDEFINED 5125861866000                       # Cumulative time (in ticks) in various power states
system.pc.i_dont_exist1.power_state.pwrStateResidencyTicks::UNDEFINED 5125861866000                       # Cumulative time (in ticks) in various power states
system.pc.com_1.power_state.pwrStateResidencyTicks::UNDEFINED 5125861866000                       # Cumulative time (in ticks) in various power states
system.pc.fake_floppy.power_state.pwrStateResidencyTicks::UNDEFINED 5125861866000                       # Cumulative time (in ticks) in various power states
system.pc.behind_pci.power_state.pwrStateResidencyTicks::UNDEFINED 5125861866000                       # Cumulative time (in ticks) in various power states
system.pc.pci_host.power_state.pwrStateResidencyTicks::UNDEFINED 5125861866000                       # Cumulative time (in ticks) in various power states
system.l2.demand_hits::.switch_cpus.dtb.walker         2654                       # number of demand (read+write) hits
system.l2.demand_hits::.switch_cpus.itb.walker         2651                       # number of demand (read+write) hits
system.l2.demand_hits::.switch_cpus.inst       614404                       # number of demand (read+write) hits
system.l2.demand_hits::.switch_cpus.data      1069683                       # number of demand (read+write) hits
system.l2.demand_hits::total                  1689392                       # number of demand (read+write) hits
system.l2.overall_hits::.switch_cpus.dtb.walker         2654                       # number of overall hits
system.l2.overall_hits::.switch_cpus.itb.walker         2651                       # number of overall hits
system.l2.overall_hits::.switch_cpus.inst       614404                       # number of overall hits
system.l2.overall_hits::.switch_cpus.data      1069683                       # number of overall hits
system.l2.overall_hits::total                 1689392                       # number of overall hits
system.l2.demand_misses::.switch_cpus.dtb.walker           21                       # number of demand (read+write) misses
system.l2.demand_misses::.switch_cpus.itb.walker            1                       # number of demand (read+write) misses
system.l2.demand_misses::.switch_cpus.inst        14461                       # number of demand (read+write) misses
system.l2.demand_misses::.switch_cpus.data       344556                       # number of demand (read+write) misses
system.l2.demand_misses::total                 359039                       # number of demand (read+write) misses
system.l2.overall_misses::.switch_cpus.dtb.walker           21                       # number of overall misses
system.l2.overall_misses::.switch_cpus.itb.walker            1                       # number of overall misses
system.l2.overall_misses::.switch_cpus.inst        14461                       # number of overall misses
system.l2.overall_misses::.switch_cpus.data       344556                       # number of overall misses
system.l2.overall_misses::total                359039                       # number of overall misses
system.l2.demand_accesses::.switch_cpus.dtb.walker         2675                       # number of demand (read+write) accesses
system.l2.demand_accesses::.switch_cpus.itb.walker         2652                       # number of demand (read+write) accesses
system.l2.demand_accesses::.switch_cpus.inst       628865                       # number of demand (read+write) accesses
system.l2.demand_accesses::.switch_cpus.data      1414239                       # number of demand (read+write) accesses
system.l2.demand_accesses::total              2048431                       # number of demand (read+write) accesses
system.l2.overall_accesses::.switch_cpus.dtb.walker         2675                       # number of overall (read+write) accesses
system.l2.overall_accesses::.switch_cpus.itb.walker         2652                       # number of overall (read+write) accesses
system.l2.overall_accesses::.switch_cpus.inst       628865                       # number of overall (read+write) accesses
system.l2.overall_accesses::.switch_cpus.data      1414239                       # number of overall (read+write) accesses
system.l2.overall_accesses::total             2048431                       # number of overall (read+write) accesses
system.l2.demand_miss_rate::.switch_cpus.dtb.walker     0.007850                       # miss rate for demand accesses
system.l2.demand_miss_rate::.switch_cpus.itb.walker     0.000377                       # miss rate for demand accesses
system.l2.demand_miss_rate::.switch_cpus.inst     0.022995                       # miss rate for demand accesses
system.l2.demand_miss_rate::.switch_cpus.data     0.243634                       # miss rate for demand accesses
system.l2.demand_miss_rate::total            0.175275                       # miss rate for demand accesses
system.l2.overall_miss_rate::.switch_cpus.dtb.walker     0.007850                       # miss rate for overall accesses
system.l2.overall_miss_rate::.switch_cpus.itb.walker     0.000377                       # miss rate for overall accesses
system.l2.overall_miss_rate::.switch_cpus.inst     0.022995                       # miss rate for overall accesses
system.l2.overall_miss_rate::.switch_cpus.data     0.243634                       # miss rate for overall accesses
system.l2.overall_miss_rate::total           0.175275                       # miss rate for overall accesses
system.l2.blocked_cycles::no_mshrs                  0                       # number of cycles access was blocked
system.l2.blocked_cycles::no_targets                0                       # number of cycles access was blocked
system.l2.blocked::no_mshrs                         0                       # number of cycles access was blocked
system.l2.blocked::no_targets                       0                       # number of cycles access was blocked
system.l2.avg_blocked_cycles::no_mshrs            nan                       # average number of cycles each access was blocked
system.l2.avg_blocked_cycles::no_targets          nan                       # average number of cycles each access was blocked
system.l2.writebacks::.writebacks              345108                       # number of writebacks
system.l2.writebacks::total                    345108                       # number of writebacks
system.l2.replacements                         361039                       # number of replacements
system.l2.WritebackDirty_hits::.writebacks      1374620                       # number of WritebackDirty hits
system.l2.WritebackDirty_hits::total          1374620                       # number of WritebackDirty hits
system.l2.WritebackDirty_accesses::.writebacks      1374620                       # number of WritebackDirty accesses(hits+misses)
system.l2.WritebackDirty_accesses::total      1374620                       # number of WritebackDirty accesses(hits+misses)
system.l2.WritebackClean_hits::.writebacks       628682                       # number of WritebackClean hits
system.l2.WritebackClean_hits::total           628682                       # number of WritebackClean hits
system.l2.WritebackClean_accesses::.writebacks       628682                       # number of WritebackClean accesses(hits+misses)
system.l2.WritebackClean_accesses::total       628682                       # number of WritebackClean accesses(hits+misses)
system.l2.UpgradeReq_hits::.switch_cpus.data         1023                       # number of UpgradeReq hits
system.l2.UpgradeReq_hits::total                 1023                       # number of UpgradeReq hits
system.l2.UpgradeReq_misses::.switch_cpus.data           77                       # number of UpgradeReq misses
system.l2.UpgradeReq_misses::total                 77                       # number of UpgradeReq misses
system.l2.UpgradeReq_accesses::.switch_cpus.data         1100                       # number of UpgradeReq accesses(hits+misses)
system.l2.UpgradeReq_accesses::total             1100                       # number of UpgradeReq accesses(hits+misses)
system.l2.UpgradeReq_miss_rate::.switch_cpus.data     0.070000                       # miss rate for UpgradeReq accesses
system.l2.UpgradeReq_miss_rate::total        0.070000                       # miss rate for UpgradeReq accesses
system.l2.ReadExReq_hits::.switch_cpus.data       108321                       # number of ReadExReq hits
system.l2.ReadExReq_hits::total                108321                       # number of ReadExReq hits
system.l2.ReadExReq_misses::.switch_cpus.data       189339                       # number of ReadExReq misses
system.l2.ReadExReq_misses::total              189339                       # number of ReadExReq misses
system.l2.ReadExReq_accesses::.switch_cpus.data       297660                       # number of ReadExReq accesses(hits+misses)
system.l2.ReadExReq_accesses::total            297660                       # number of ReadExReq accesses(hits+misses)
system.l2.ReadExReq_miss_rate::.switch_cpus.data     0.636092                       # miss rate for ReadExReq accesses
system.l2.ReadExReq_miss_rate::total         0.636092                       # miss rate for ReadExReq accesses
system.l2.ReadCleanReq_hits::.switch_cpus.inst       614404                       # number of ReadCleanReq hits
system.l2.ReadCleanReq_hits::total             614404                       # number of ReadCleanReq hits
system.l2.ReadCleanReq_misses::.switch_cpus.inst        14461                       # number of ReadCleanReq misses
system.l2.ReadCleanReq_misses::total            14461                       # number of ReadCleanReq misses
system.l2.ReadCleanReq_accesses::.switch_cpus.inst       628865                       # number of ReadCleanReq accesses(hits+misses)
system.l2.ReadCleanReq_accesses::total         628865                       # number of ReadCleanReq accesses(hits+misses)
system.l2.ReadCleanReq_miss_rate::.switch_cpus.inst     0.022995                       # miss rate for ReadCleanReq accesses
system.l2.ReadCleanReq_miss_rate::total      0.022995                       # miss rate for ReadCleanReq accesses
system.l2.ReadSharedReq_hits::.switch_cpus.dtb.walker         2654                       # number of ReadSharedReq hits
system.l2.ReadSharedReq_hits::.switch_cpus.itb.walker         2651                       # number of ReadSharedReq hits
system.l2.ReadSharedReq_hits::.switch_cpus.data       961362                       # number of ReadSharedReq hits
system.l2.ReadSharedReq_hits::total            966667                       # number of ReadSharedReq hits
system.l2.ReadSharedReq_misses::.switch_cpus.dtb.walker           21                       # number of ReadSharedReq misses
system.l2.ReadSharedReq_misses::.switch_cpus.itb.walker            1                       # number of ReadSharedReq misses
system.l2.ReadSharedReq_misses::.switch_cpus.data       155217                       # number of ReadSharedReq misses
system.l2.ReadSharedReq_misses::total          155239                       # number of ReadSharedReq misses
system.l2.ReadSharedReq_accesses::.switch_cpus.dtb.walker         2675                       # number of ReadSharedReq accesses(hits+misses)
system.l2.ReadSharedReq_accesses::.switch_cpus.itb.walker         2652                       # number of ReadSharedReq accesses(hits+misses)
system.l2.ReadSharedReq_accesses::.switch_cpus.data      1116579                       # number of ReadSharedReq accesses(hits+misses)
system.l2.ReadSharedReq_accesses::total       1121906                       # number of ReadSharedReq accesses(hits+misses)
system.l2.ReadSharedReq_miss_rate::.switch_cpus.dtb.walker     0.007850                       # miss rate for ReadSharedReq accesses
system.l2.ReadSharedReq_miss_rate::.switch_cpus.itb.walker     0.000377                       # miss rate for ReadSharedReq accesses
system.l2.ReadSharedReq_miss_rate::.switch_cpus.data     0.139011                       # miss rate for ReadSharedReq accesses
system.l2.ReadSharedReq_miss_rate::total     0.138371                       # miss rate for ReadSharedReq accesses
system.l2.power_state.pwrStateResidencyTicks::UNDEFINED 5125861866000                       # Cumulative time (in ticks) in various power states
system.l2.tags.tagsinuse                 32767.023757                       # Cycle average of tags in use
system.l2.tags.total_refs                     3748765                       # Total number of references to valid blocks.
system.l2.tags.sampled_refs                    364072                       # Sample count of references to valid blocks.
system.l2.tags.avg_refs                     10.296768                       # Average number of references to valid blocks.
system.l2.tags.warmup_cycle                         0                       # Cycle when the warmup percentage was hit.
system.l2.tags.occ_blocks::.writebacks    1099.660108                       # Average occupied blocks per requestor
system.l2.tags.occ_blocks::.cpu.data         2.036153                       # Average occupied blocks per requestor
system.l2.tags.occ_blocks::.switch_cpus.dtb.walker     0.824186                       # Average occupied blocks per requestor
system.l2.tags.occ_blocks::.switch_cpus.itb.walker     0.001171                       # Average occupied blocks per requestor
system.l2.tags.occ_blocks::.switch_cpus.inst  1351.536825                       # Average occupied blocks per requestor
system.l2.tags.occ_blocks::.switch_cpus.data 30312.965314                       # Average occupied blocks per requestor
system.l2.tags.occ_percent::.writebacks      0.033559                       # Average percentage of cache occupancy
system.l2.tags.occ_percent::.cpu.data        0.000062                       # Average percentage of cache occupancy
system.l2.tags.occ_percent::.switch_cpus.dtb.walker     0.000025                       # Average percentage of cache occupancy
system.l2.tags.occ_percent::.switch_cpus.itb.walker     0.000000                       # Average percentage of cache occupancy
system.l2.tags.occ_percent::.switch_cpus.inst     0.041246                       # Average percentage of cache occupancy
system.l2.tags.occ_percent::.switch_cpus.data     0.925078                       # Average percentage of cache occupancy
system.l2.tags.occ_percent::total            0.999970                       # Average percentage of cache occupancy
system.l2.tags.occ_task_id_blocks::1024         32194                       # Occupied blocks per task id
system.l2.tags.age_task_id_blocks_1024::0            5                       # Occupied blocks per task id
system.l2.tags.age_task_id_blocks_1024::1           23                       # Occupied blocks per task id
system.l2.tags.age_task_id_blocks_1024::2          567                       # Occupied blocks per task id
system.l2.tags.age_task_id_blocks_1024::3        19984                       # Occupied blocks per task id
system.l2.tags.age_task_id_blocks_1024::4        11615                       # Occupied blocks per task id
system.l2.tags.occ_task_id_percent::1024     0.982483                       # Percentage of cache occupancy per task id
system.l2.tags.tag_accesses                  33115594                       # Number of tag accesses
system.l2.tags.data_accesses                 33115594                       # Number of data accesses
system.l2.tags.power_state.pwrStateResidencyTicks::UNDEFINED 5125861866000                       # Cumulative time (in ticks) in various power states
system.l3.demand_hits::.switch_cpus.dtb.walker           21                       # number of demand (read+write) hits
system.l3.demand_hits::.switch_cpus.itb.walker            1                       # number of demand (read+write) hits
system.l3.demand_hits::.switch_cpus.inst         4105                       # number of demand (read+write) hits
system.l3.demand_hits::.switch_cpus.data       215389                       # number of demand (read+write) hits
system.l3.demand_hits::total                   219516                       # number of demand (read+write) hits
system.l3.overall_hits::.switch_cpus.dtb.walker           21                       # number of overall hits
system.l3.overall_hits::.switch_cpus.itb.walker            1                       # number of overall hits
system.l3.overall_hits::.switch_cpus.inst         4105                       # number of overall hits
system.l3.overall_hits::.switch_cpus.data       215389                       # number of overall hits
system.l3.overall_hits::total                  219516                       # number of overall hits
system.l3.demand_misses::.switch_cpus.inst        10356                       # number of demand (read+write) misses
system.l3.demand_misses::.switch_cpus.data       129116                       # number of demand (read+write) misses
system.l3.demand_misses::total                 139472                       # number of demand (read+write) misses
system.l3.overall_misses::.switch_cpus.inst        10356                       # number of overall misses
system.l3.overall_misses::.switch_cpus.data       129116                       # number of overall misses
system.l3.overall_misses::total                139472                       # number of overall misses
system.l3.demand_accesses::.switch_cpus.dtb.walker           21                       # number of demand (read+write) accesses
system.l3.demand_accesses::.switch_cpus.itb.walker            1                       # number of demand (read+write) accesses
system.l3.demand_accesses::.switch_cpus.inst        14461                       # number of demand (read+write) accesses
system.l3.demand_accesses::.switch_cpus.data       344505                       # number of demand (read+write) accesses
system.l3.demand_accesses::total               358988                       # number of demand (read+write) accesses
system.l3.overall_accesses::.switch_cpus.dtb.walker           21                       # number of overall (read+write) accesses
system.l3.overall_accesses::.switch_cpus.itb.walker            1                       # number of overall (read+write) accesses
system.l3.overall_accesses::.switch_cpus.inst        14461                       # number of overall (read+write) accesses
system.l3.overall_accesses::.switch_cpus.data       344505                       # number of overall (read+write) accesses
system.l3.overall_accesses::total              358988                       # number of overall (read+write) accesses
system.l3.demand_miss_rate::.switch_cpus.inst     0.716133                       # miss rate for demand accesses
system.l3.demand_miss_rate::.switch_cpus.data     0.374787                       # miss rate for demand accesses
system.l3.demand_miss_rate::total            0.388514                       # miss rate for demand accesses
system.l3.overall_miss_rate::.switch_cpus.inst     0.716133                       # miss rate for overall accesses
system.l3.overall_miss_rate::.switch_cpus.data     0.374787                       # miss rate for overall accesses
system.l3.overall_miss_rate::total           0.388514                       # miss rate for overall accesses
system.l3.blocked_cycles::no_mshrs                  0                       # number of cycles access was blocked
system.l3.blocked_cycles::no_targets                0                       # number of cycles access was blocked
system.l3.blocked::no_mshrs                         0                       # number of cycles access was blocked
system.l3.blocked::no_targets                       0                       # number of cycles access was blocked
system.l3.avg_blocked_cycles::no_mshrs            nan                       # average number of cycles each access was blocked
system.l3.avg_blocked_cycles::no_targets          nan                       # average number of cycles each access was blocked
system.l3.writebacks::.writebacks               11564                       # number of writebacks
system.l3.writebacks::total                     11564                       # number of writebacks
system.l3.replacements                          12701                       # number of replacements
system.l3.WritebackDirty_hits::.writebacks       345108                       # number of WritebackDirty hits
system.l3.WritebackDirty_hits::total           345108                       # number of WritebackDirty hits
system.l3.WritebackDirty_accesses::.writebacks       345108                       # number of WritebackDirty accesses(hits+misses)
system.l3.WritebackDirty_accesses::total       345108                       # number of WritebackDirty accesses(hits+misses)
system.l3.UpgradeReq_hits::.switch_cpus.data            5                       # number of UpgradeReq hits
system.l3.UpgradeReq_hits::total                    5                       # number of UpgradeReq hits
system.l3.UpgradeReq_misses::.switch_cpus.data          123                       # number of UpgradeReq misses
system.l3.UpgradeReq_misses::total                123                       # number of UpgradeReq misses
system.l3.UpgradeReq_accesses::.switch_cpus.data          128                       # number of UpgradeReq accesses(hits+misses)
system.l3.UpgradeReq_accesses::total              128                       # number of UpgradeReq accesses(hits+misses)
system.l3.UpgradeReq_miss_rate::.switch_cpus.data     0.960938                       # miss rate for UpgradeReq accesses
system.l3.UpgradeReq_miss_rate::total        0.960938                       # miss rate for UpgradeReq accesses
system.l3.ReadExReq_hits::.switch_cpus.data        78045                       # number of ReadExReq hits
system.l3.ReadExReq_hits::total                 78045                       # number of ReadExReq hits
system.l3.ReadExReq_misses::.switch_cpus.data       111243                       # number of ReadExReq misses
system.l3.ReadExReq_misses::total              111243                       # number of ReadExReq misses
system.l3.ReadExReq_accesses::.switch_cpus.data       189288                       # number of ReadExReq accesses(hits+misses)
system.l3.ReadExReq_accesses::total            189288                       # number of ReadExReq accesses(hits+misses)
system.l3.ReadExReq_miss_rate::.switch_cpus.data     0.587692                       # miss rate for ReadExReq accesses
system.l3.ReadExReq_miss_rate::total         0.587692                       # miss rate for ReadExReq accesses
system.l3.ReadSharedReq_hits::.switch_cpus.dtb.walker           21                       # number of ReadSharedReq hits
system.l3.ReadSharedReq_hits::.switch_cpus.itb.walker            1                       # number of ReadSharedReq hits
system.l3.ReadSharedReq_hits::.switch_cpus.inst         4105                       # number of ReadSharedReq hits
system.l3.ReadSharedReq_hits::.switch_cpus.data       137344                       # number of ReadSharedReq hits
system.l3.ReadSharedReq_hits::total            141471                       # number of ReadSharedReq hits
system.l3.ReadSharedReq_misses::.switch_cpus.inst        10356                       # number of ReadSharedReq misses
system.l3.ReadSharedReq_misses::.switch_cpus.data        17873                       # number of ReadSharedReq misses
system.l3.ReadSharedReq_misses::total           28229                       # number of ReadSharedReq misses
system.l3.ReadSharedReq_accesses::.switch_cpus.dtb.walker           21                       # number of ReadSharedReq accesses(hits+misses)
system.l3.ReadSharedReq_accesses::.switch_cpus.itb.walker            1                       # number of ReadSharedReq accesses(hits+misses)
system.l3.ReadSharedReq_accesses::.switch_cpus.inst        14461                       # number of ReadSharedReq accesses(hits+misses)
system.l3.ReadSharedReq_accesses::.switch_cpus.data       155217                       # number of ReadSharedReq accesses(hits+misses)
system.l3.ReadSharedReq_accesses::total        169700                       # number of ReadSharedReq accesses(hits+misses)
system.l3.ReadSharedReq_miss_rate::.switch_cpus.inst     0.716133                       # miss rate for ReadSharedReq accesses
system.l3.ReadSharedReq_miss_rate::.switch_cpus.data     0.115148                       # miss rate for ReadSharedReq accesses
system.l3.ReadSharedReq_miss_rate::total     0.166346                       # miss rate for ReadSharedReq accesses
system.l3.power_state.pwrStateResidencyTicks::UNDEFINED 5125861866000                       # Cumulative time (in ticks) in various power states
system.l3.tags.tagsinuse                 236163.804659                       # Cycle average of tags in use
system.l3.tags.total_refs                       93835                       # Total number of references to valid blocks.
system.l3.tags.sampled_refs                     26289                       # Sample count of references to valid blocks.
system.l3.tags.avg_refs                      3.569364                       # Average number of references to valid blocks.
system.l3.tags.warmup_cycle                         0                       # Cycle when the warmup percentage was hit.
system.l3.tags.occ_blocks::.writebacks      15.501745                       # Average occupied blocks per requestor
system.l3.tags.occ_blocks::.cpu.itb.walker     0.041362                       # Average occupied blocks per requestor
system.l3.tags.occ_blocks::.cpu.inst       297.722711                       # Average occupied blocks per requestor
system.l3.tags.occ_blocks::.cpu.data     120722.501501                       # Average occupied blocks per requestor
system.l3.tags.occ_blocks::.switch_cpus.inst  4109.336840                       # Average occupied blocks per requestor
system.l3.tags.occ_blocks::.switch_cpus.data 111018.700501                       # Average occupied blocks per requestor
system.l3.tags.occ_percent::.writebacks      0.000059                       # Average percentage of cache occupancy
system.l3.tags.occ_percent::.cpu.itb.walker     0.000000                       # Average percentage of cache occupancy
system.l3.tags.occ_percent::.cpu.inst        0.001136                       # Average percentage of cache occupancy
system.l3.tags.occ_percent::.cpu.data        0.460520                       # Average percentage of cache occupancy
system.l3.tags.occ_percent::.switch_cpus.inst     0.015676                       # Average percentage of cache occupancy
system.l3.tags.occ_percent::.switch_cpus.data     0.423503                       # Average percentage of cache occupancy
system.l3.tags.occ_percent::total            0.900893                       # Average percentage of cache occupancy
system.l3.tags.occ_task_id_blocks::1024        240688                       # Occupied blocks per task id
system.l3.tags.age_task_id_blocks_1024::0            7                       # Occupied blocks per task id
system.l3.tags.age_task_id_blocks_1024::1            6                       # Occupied blocks per task id
system.l3.tags.age_task_id_blocks_1024::2          235                       # Occupied blocks per task id
system.l3.tags.age_task_id_blocks_1024::3        13822                       # Occupied blocks per task id
system.l3.tags.age_task_id_blocks_1024::4       226618                       # Occupied blocks per task id
system.l3.tags.occ_task_id_percent::1024     0.918152                       # Percentage of cache occupancy per task id
system.l3.tags.tag_accesses                  11595650                       # Number of tag accesses
system.l3.tags.data_accesses                 11595650                       # Number of data accesses
system.l3.tags.power_state.pwrStateResidencyTicks::UNDEFINED 5125861866000                       # Cumulative time (in ticks) in various power states
system.cpu_voltage_domain.voltage                   1                       # Voltage in Volts
system.mem_ctrls.bytes_read::.pc.south_bridge.ide        35648                       # Number of bytes read from this memory
system.mem_ctrls.bytes_read::.switch_cpus.inst       662080                       # Number of bytes read from this memory
system.mem_ctrls.bytes_read::.switch_cpus.data      8243520                       # Number of bytes read from this memory
system.mem_ctrls.bytes_read::total            8941248                       # Number of bytes read from this memory
system.mem_ctrls.bytes_inst_read::.switch_cpus.inst       662080                       # Number of instructions bytes read from this memory
system.mem_ctrls.bytes_inst_read::total        662080                       # Number of instructions bytes read from this memory
system.mem_ctrls.bytes_written::.writebacks      3461056                       # Number of bytes written to this memory
system.mem_ctrls.bytes_written::total         3461056                       # Number of bytes written to this memory
system.mem_ctrls.num_reads::.pc.south_bridge.ide          557                       # Number of read requests responded to by this memory
system.mem_ctrls.num_reads::.switch_cpus.inst        10345                       # Number of read requests responded to by this memory
system.mem_ctrls.num_reads::.switch_cpus.data       128805                       # Number of read requests responded to by this memory
system.mem_ctrls.num_reads::total              139707                       # Number of read requests responded to by this memory
system.mem_ctrls.num_writes::.writebacks        54079                       # Number of write requests responded to by this memory
system.mem_ctrls.num_writes::total              54079                       # Number of write requests responded to by this memory
system.mem_ctrls.bw_read::.pc.south_bridge.ide         6960                       # Total read bandwidth from this memory (bytes/s)
system.mem_ctrls.bw_read::.switch_cpus.inst       129267                       # Total read bandwidth from this memory (bytes/s)
system.mem_ctrls.bw_read::.switch_cpus.data      1609501                       # Total read bandwidth from this memory (bytes/s)
system.mem_ctrls.bw_read::total               1745728                       # Total read bandwidth from this memory (bytes/s)
system.mem_ctrls.bw_inst_read::.switch_cpus.inst       129267                       # Instruction read bandwidth from this memory (bytes/s)
system.mem_ctrls.bw_inst_read::total           129267                       # Instruction read bandwidth from this memory (bytes/s)
system.mem_ctrls.bw_write::.writebacks         675752                       # Write bandwidth from this memory (bytes/s)
system.mem_ctrls.bw_write::total               675752                       # Write bandwidth from this memory (bytes/s)
system.mem_ctrls.bw_total::.writebacks         675752                       # Total bandwidth to/from this memory (bytes/s)
system.mem_ctrls.bw_total::.pc.south_bridge.ide         6960                       # Total bandwidth to/from this memory (bytes/s)
system.mem_ctrls.bw_total::.switch_cpus.inst       129267                       # Total bandwidth to/from this memory (bytes/s)
system.mem_ctrls.bw_total::.switch_cpus.data      1609501                       # Total bandwidth to/from this memory (bytes/s)
system.mem_ctrls.bw_total::total              2421480                       # Total bandwidth to/from this memory (bytes/s)
system.mem_ctrls.priorityMinLatency      0.000000000000                       # per QoS priority minimum request to response latency (s)
system.mem_ctrls.priorityMaxLatency      0.000000000000                       # per QoS priority maximum request to response latency (s)
system.mem_ctrls.numReadWriteTurnArounds            0                       # Number of turnarounds from READ to WRITE
system.mem_ctrls.numWriteReadTurnArounds            0                       # Number of turnarounds from WRITE to READ
system.mem_ctrls.numStayReadState                   0                       # Number of times bus staying in READ state
system.mem_ctrls.numStayWriteState                  0                       # Number of times bus staying in WRITE state
system.mem_ctrls.readReqs                           0                       # Number of read requests accepted
system.mem_ctrls.writeReqs                          0                       # Number of write requests accepted
system.mem_ctrls.readBursts                         0                       # Number of DRAM read bursts, including those serviced by the write queue
system.mem_ctrls.writeBursts                        0                       # Number of DRAM write bursts, including those merged in the write queue
system.mem_ctrls.servicedByWrQ                      0                       # Number of DRAM read bursts serviced by the write queue
system.mem_ctrls.mergedWrBursts                     0                       # Number of DRAM write bursts merged with an existing one
system.mem_ctrls.neitherReadNorWriteReqs            0                       # Number of requests that are neither read nor write
system.mem_ctrls.perBankRdBursts::0                 0                       # Per bank write bursts
[...]
system.cpu.dtb_walker_cache.overall_hits::total       342544                       # number of overall hits
system.cpu.dtb_walker_cache.demand_misses::.cpu.dtb.walker           28                       # number of demand (read+write) misses
system.cpu.dtb_walker_cache.demand_misses::.switch_cpus.dtb.walker        67133                       # number of demand (read+write) misses
system.cpu.dtb_walker_cache.demand_misses::total        67161                       # number of demand (read+write) misses
system.cpu.dtb_walker_cache.overall_misses::.cpu.dtb.walker           28                       # number of overall misses
system.cpu.dtb_walker_cache.overall_misses::.switch_cpus.dtb.walker        67133                       # number of overall misses
system.cpu.dtb_walker_cache.overall_misses::total        67161                       # number of overall misses
system.cpu.dtb_walker_cache.demand_accesses::.cpu.dtb.walker           93                       # number of demand (read+write) accesses
system.cpu.dtb_walker_cache.demand_accesses::.switch_cpus.dtb.walker       409612                       # number of demand (read+write) accesses
system.cpu.dtb_walker_cache.demand_accesses::total       409705                       # number of demand (read+write) accesses
system.cpu.dtb_walker_cache.overall_accesses::.cpu.dtb.walker           93                       # number of overall (read+write) accesses
system.cpu.dtb_walker_cache.overall_accesses::.switch_cpus.dtb.walker       409612                       # number of overall (read+write) accesses
system.cpu.dtb_walker_cache.overall_accesses::total       409705                       # number of overall (read+write) accesses
system.cpu.dtb_walker_cache.demand_miss_rate::.cpu.dtb.walker     0.301075                       # miss rate for demand accesses
system.cpu.dtb_walker_cache.demand_miss_rate::.switch_cpus.dtb.walker     0.163894                       # miss rate for demand accesses
system.cpu.dtb_walker_cache.demand_miss_rate::total     0.163925                       # miss rate for demand accesses
system.cpu.dtb_walker_cache.overall_miss_rate::.cpu.dtb.walker     0.301075                       # miss rate for overall accesses
system.cpu.dtb_walker_cache.overall_miss_rate::.switch_cpus.dtb.walker     0.163894                       # miss rate for overall accesses
system.cpu.dtb_walker_cache.overall_miss_rate::total     0.163925                       # miss rate for overall accesses
system.cpu.dtb_walker_cache.blocked_cycles::no_mshrs            0                       # number of cycles access was blocked
system.cpu.dtb_walker_cache.blocked_cycles::no_targets            0                       # number of cycles access was blocked
system.cpu.dtb_walker_cache.blocked::no_mshrs            0                       # number of cycles access was blocked
system.cpu.dtb_walker_cache.blocked::no_targets            0                       # number of cycles access was blocked
system.cpu.dtb_walker_cache.avg_blocked_cycles::no_mshrs          nan                       # average number of cycles each access was blocked
system.cpu.dtb_walker_cache.avg_blocked_cycles::no_targets          nan                       # average number of cycles each access was blocked
system.cpu.dtb_walker_cache.writebacks::.writebacks         5610                       # number of writebacks
system.cpu.dtb_walker_cache.writebacks::total         5610                       # number of writebacks
system.cpu.dtb_walker_cache.replacements        37224                       # number of replacements
system.cpu.dtb_walker_cache.ReadReq_hits::.cpu.dtb.walker           65                       # number of ReadReq hits
system.cpu.dtb_walker_cache.ReadReq_hits::.switch_cpus.dtb.walker       342479                       # number of ReadReq hits
system.cpu.dtb_walker_cache.ReadReq_hits::total       342544                       # number of ReadReq hits
system.cpu.dtb_walker_cache.ReadReq_misses::.cpu.dtb.walker           28                       # number of ReadReq misses
system.cpu.dtb_walker_cache.ReadReq_misses::.switch_cpus.dtb.walker        67133                       # number of ReadReq misses
system.cpu.dtb_walker_cache.ReadReq_misses::total        67161                       # number of ReadReq misses
system.cpu.dtb_walker_cache.ReadReq_accesses::.cpu.dtb.walker           93                       # number of ReadReq accesses(hits+misses)
system.cpu.dtb_walker_cache.ReadReq_accesses::.switch_cpus.dtb.walker       409612                       # number of ReadReq accesses(hits+misses)
system.cpu.dtb_walker_cache.ReadReq_accesses::total       409705                       # number of ReadReq accesses(hits+misses)
system.cpu.dtb_walker_cache.ReadReq_miss_rate::.cpu.dtb.walker     0.301075                       # miss rate for ReadReq accesses
system.cpu.dtb_walker_cache.ReadReq_miss_rate::.switch_cpus.dtb.walker     0.163894                       # miss rate for ReadReq accesses
system.cpu.dtb_walker_cache.ReadReq_miss_rate::total     0.163925                       # miss rate for ReadReq accesses
system.cpu.dtb_walker_cache.power_state.pwrStateResidencyTicks::UNDEFINED 5439930008000                       # Cumulative time (in ticks) in various power states
system.cpu.dtb_walker_cache.tags.tagsinuse     5.632336                       # Cycle average of tags in use
system.cpu.dtb_walker_cache.tags.total_refs       409705                       # Total number of references to valid blocks.
system.cpu.dtb_walker_cache.tags.sampled_refs        67161                       # Sample count of references to valid blocks.
system.cpu.dtb_walker_cache.tags.avg_refs     6.100341                       # Average number of references to valid blocks.
system.cpu.dtb_walker_cache.tags.warmup_cycle        12000                       # Cycle when the warmup percentage was hit.
system.cpu.dtb_walker_cache.tags.occ_blocks::.cpu.dtb.walker     0.944007                       # Average occupied blocks per requestor
system.cpu.dtb_walker_cache.tags.occ_blocks::.switch_cpus.dtb.walker     4.688329                       # Average occupied blocks per requestor
system.cpu.dtb_walker_cache.tags.occ_percent::.cpu.dtb.walker     0.059000                       # Average percentage of cache occupancy
system.cpu.dtb_walker_cache.tags.occ_percent::.switch_cpus.dtb.walker     0.293021                       # Average percentage of cache occupancy
system.cpu.dtb_walker_cache.tags.occ_percent::total     0.352021                       # Average percentage of cache occupancy
system.cpu.dtb_walker_cache.tags.occ_task_id_blocks::1024           14                       # Occupied blocks per task id
system.cpu.dtb_walker_cache.tags.age_task_id_blocks_1024::0            5                       # Occupied blocks per task id
system.cpu.dtb_walker_cache.tags.age_task_id_blocks_1024::1            4                       # Occupied blocks per task id
system.cpu.dtb_walker_cache.tags.age_task_id_blocks_1024::2            5                       # Occupied blocks per task id
system.cpu.dtb_walker_cache.tags.occ_task_id_percent::1024     0.875000                       # Percentage of cache occupancy per task id
system.cpu.dtb_walker_cache.tags.tag_accesses       886571                       # Number of tag accesses
system.cpu.dtb_walker_cache.tags.data_accesses       886571                       # Number of data accesses
system.cpu.dtb_walker_cache.tags.power_state.pwrStateResidencyTicks::UNDEFINED 5439930008000                       # Cumulative time (in ticks) in various power states
system.cpu.dcache.demand_hits::.cpu.data      1844065                       # number of demand (read+write) hits
system.cpu.dcache.demand_hits::.switch_cpus.data    160462686                       # number of demand (read+write) hits
system.cpu.dcache.demand_hits::total        162306751                       # number of demand (read+write) hits
system.cpu.dcache.overall_hits::.cpu.data      1844066                       # number of overall hits
system.cpu.dcache.overall_hits::.switch_cpus.data    162252269                       # number of overall hits
system.cpu.dcache.overall_hits::total       164096335                       # number of overall hits
system.cpu.dcache.demand_misses::.cpu.data       179882                       # number of demand (read+write) misses
system.cpu.dcache.demand_misses::.switch_cpus.data      5733986                       # number of demand (read+write) misses
system.cpu.dcache.demand_misses::total        5913868                       # number of demand (read+write) misses
system.cpu.dcache.overall_misses::.cpu.data       179882                       # number of overall misses
system.cpu.dcache.overall_misses::.switch_cpus.data      6221272                       # number of overall misses
system.cpu.dcache.overall_misses::total       6401154                       # number of overall misses
system.cpu.dcache.demand_accesses::.cpu.data      2023947                       # number of demand (read+write) accesses
system.cpu.dcache.demand_accesses::.switch_cpus.data    166196672                       # number of demand (read+write) accesses
system.cpu.dcache.demand_accesses::total    168220619                       # number of demand (read+write) accesses
system.cpu.dcache.overall_accesses::.cpu.data      2023948                       # number of overall (read+write) accesses
system.cpu.dcache.overall_accesses::.switch_cpus.data    168473541                       # number of overall (read+write) accesses
system.cpu.dcache.overall_accesses::total    170497489                       # number of overall (read+write) accesses
system.cpu.dcache.demand_miss_rate::.cpu.data     0.088877                       # miss rate for demand accesses
system.cpu.dcache.demand_miss_rate::.switch_cpus.data     0.034501                       # miss rate for demand accesses
system.cpu.dcache.demand_miss_rate::total     0.035155                       # miss rate for demand accesses
system.cpu.dcache.overall_miss_rate::.cpu.data     0.088877                       # miss rate for overall accesses
system.cpu.dcache.overall_miss_rate::.switch_cpus.data     0.036927                       # miss rate for overall accesses
system.cpu.dcache.overall_miss_rate::total     0.037544                       # miss rate for overall accesses
system.cpu.dcache.blocked_cycles::no_mshrs            0                       # number of cycles access was blocked
system.cpu.dcache.blocked_cycles::no_targets            0                       # number of cycles access was blocked
system.cpu.dcache.blocked::no_mshrs                 0                       # number of cycles access was blocked
system.cpu.dcache.blocked::no_targets               0                       # number of cycles access was blocked
system.cpu.dcache.avg_blocked_cycles::no_mshrs          nan                       # average number of cycles each access was blocked
system.cpu.dcache.avg_blocked_cycles::no_targets          nan                       # average number of cycles each access was blocked
system.cpu.dcache.writebacks::.writebacks      6228233                       # number of writebacks
system.cpu.dcache.writebacks::total           6228233                       # number of writebacks
system.cpu.dcache.replacements                6368796                       # number of replacements
system.cpu.dcache.ReadReq_hits::.cpu.data       497613                       # number of ReadReq hits
system.cpu.dcache.ReadReq_hits::.switch_cpus.data     83301474                       # number of ReadReq hits
system.cpu.dcache.ReadReq_hits::total        83799087                       # number of ReadReq hits
system.cpu.dcache.ReadReq_misses::.cpu.data        10121                       # number of ReadReq misses
system.cpu.dcache.ReadReq_misses::.switch_cpus.data      1465104                       # number of ReadReq misses
system.cpu.dcache.ReadReq_misses::total       1475225                       # number of ReadReq misses
system.cpu.dcache.ReadReq_accesses::.cpu.data       507734                       # number of ReadReq accesses(hits+misses)
system.cpu.dcache.ReadReq_accesses::.switch_cpus.data     84766578                       # number of ReadReq accesses(hits+misses)
system.cpu.dcache.ReadReq_accesses::total     85274312                       # number of ReadReq accesses(hits+misses)
system.cpu.dcache.ReadReq_miss_rate::.cpu.data     0.019934                       # miss rate for ReadReq accesses
system.cpu.dcache.ReadReq_miss_rate::.switch_cpus.data     0.017284                       # miss rate for ReadReq accesses
system.cpu.dcache.ReadReq_miss_rate::total     0.017300                       # miss rate for ReadReq accesses
system.cpu.dcache.WriteReq_hits::.cpu.data      1346452                       # number of WriteReq hits
system.cpu.dcache.WriteReq_hits::.switch_cpus.data     77161212                       # number of WriteReq hits
system.cpu.dcache.WriteReq_hits::total       78507664                       # number of WriteReq hits
system.cpu.dcache.WriteReq_misses::.cpu.data       169761                       # number of WriteReq misses
system.cpu.dcache.WriteReq_misses::.switch_cpus.data      4268882                       # number of WriteReq misses
system.cpu.dcache.WriteReq_misses::total      4438643                       # number of WriteReq misses
system.cpu.dcache.WriteReq_accesses::.cpu.data      1516213                       # number of WriteReq accesses(hits+misses)
system.cpu.dcache.WriteReq_accesses::.switch_cpus.data     81430094                       # number of WriteReq accesses(hits+misses)
system.cpu.dcache.WriteReq_accesses::total     82946307                       # number of WriteReq accesses(hits+misses)
system.cpu.dcache.WriteReq_miss_rate::.cpu.data     0.111964                       # miss rate for WriteReq accesses
system.cpu.dcache.WriteReq_miss_rate::.switch_cpus.data     0.052424                       # miss rate for WriteReq accesses
system.cpu.dcache.WriteReq_miss_rate::total     0.053512                       # miss rate for WriteReq accesses
system.cpu.dcache.SoftPFReq_hits::.cpu.data            1                       # number of SoftPFReq hits
system.cpu.dcache.SoftPFReq_hits::.switch_cpus.data      1789583                       # number of SoftPFReq hits
system.cpu.dcache.SoftPFReq_hits::total       1789584                       # number of SoftPFReq hits
system.cpu.dcache.SoftPFReq_misses::.switch_cpus.data       487286                       # number of SoftPFReq misses
system.cpu.dcache.SoftPFReq_misses::total       487286                       # number of SoftPFReq misses
system.cpu.dcache.SoftPFReq_accesses::.cpu.data            1                       # number of SoftPFReq accesses(hits+misses)
system.cpu.dcache.SoftPFReq_accesses::.switch_cpus.data      2276869                       # number of SoftPFReq accesses(hits+misses)
system.cpu.dcache.SoftPFReq_accesses::total      2276870                       # number of SoftPFReq accesses(hits+misses)
system.cpu.dcache.SoftPFReq_miss_rate::.switch_cpus.data     0.214016                       # miss rate for SoftPFReq accesses
system.cpu.dcache.SoftPFReq_miss_rate::total     0.214016                       # miss rate for SoftPFReq accesses
system.cpu.dcache.power_state.pwrStateResidencyTicks::UNDEFINED 5439930008000                       # Cumulative time (in ticks) in various power states
system.cpu.dcache.tags.tagsinuse          1023.987496                       # Cycle average of tags in use
system.cpu.dcache.tags.total_refs           170497489                       # Total number of references to valid blocks.
system.cpu.dcache.tags.sampled_refs           6370167                       # Sample count of references to valid blocks.
system.cpu.dcache.tags.avg_refs             26.764995                       # Average number of references to valid blocks.
system.cpu.dcache.tags.warmup_cycle             12000                       # Cycle when the warmup percentage was hit.
system.cpu.dcache.tags.occ_blocks::.cpu.data     0.767511                       # Average occupied blocks per requestor
system.cpu.dcache.tags.occ_blocks::.switch_cpus.data  1023.219984                       # Average occupied blocks per requestor
system.cpu.dcache.tags.occ_percent::.cpu.data     0.000750                       # Average percentage of cache occupancy
system.cpu.dcache.tags.occ_percent::.switch_cpus.data     0.999238                       # Average percentage of cache occupancy
system.cpu.dcache.tags.occ_percent::total     0.999988                       # Average percentage of cache occupancy
system.cpu.dcache.tags.occ_task_id_blocks::1024         1024                       # Occupied blocks per task id
system.cpu.dcache.tags.age_task_id_blocks_1024::0          172                       # Occupied blocks per task id
system.cpu.dcache.tags.age_task_id_blocks_1024::1          841                       # Occupied blocks per task id
system.cpu.dcache.tags.age_task_id_blocks_1024::2           11                       # Occupied blocks per task id
system.cpu.dcache.tags.occ_task_id_percent::1024            1                       # Percentage of cache occupancy per task id
system.cpu.dcache.tags.tag_accesses         347365145                       # Number of tag accesses
system.cpu.dcache.tags.data_accesses        347365145                       # Number of data accesses
system.cpu.dcache.tags.power_state.pwrStateResidencyTicks::UNDEFINED 5439930008000                       # Cumulative time (in ticks) in various power states
system.cpu.power_state.numTransitions               2                       # Number of power state transitions
system.cpu.power_state.pwrStateResidencyTicks::ON   4074851500                       # Cumulative time (in ticks) in various power states
system.cpu.power_state.pwrStateResidencyTicks::OFF 5435855156500                       # Cumulative time (in ticks) in various power states
system.switch_cpus.dtb.walker.power_state.pwrStateResidencyTicks::UNDEFINED 5439930008000                       # Cumulative time (in ticks) in various power states
system.switch_cpus.itb.walker.power_state.pwrStateResidencyTicks::UNDEFINED 5439930008000                       # Cumulative time (in ticks) in various power states
system.switch_cpus.power_state.numTransitions         5107                       # Number of power state transitions
system.switch_cpus.power_state.ticksClkGated::samples         2553                       # Distribution of time spent in the clock gated state
system.switch_cpus.power_state.ticksClkGated::mean 1916869945.488053                       # Distribution of time spent in the clock gated state
system.switch_cpus.power_state.ticksClkGated::stdev 463069723.087647                       # Distribution of time spent in the clock gated state
system.switch_cpus.power_state.ticksClkGated::1000-5e+10         2553    100.00%    100.00% # Distribution of time spent in the clock gated state
system.switch_cpus.power_state.ticksClkGated::min_value       254009                       # Distribution of time spent in the clock gated state
system.switch_cpus.power_state.ticksClkGated::max_value   2498506368                       # Distribution of time spent in the clock gated state
system.switch_cpus.power_state.ticksClkGated::total         2553                       # Distribution of time spent in the clock gated state
system.switch_cpus.power_state.pwrStateResidencyTicks::ON 386692514669                       # Cumulative time (in ticks) in various power states
system.switch_cpus.power_state.pwrStateResidencyTicks::CLK_GATED 4893768970831                       # Cumulative time (in ticks) in various power states
system.switch_cpus.power_state.pwrStateResidencyTicks::OFF 159468522500                       # Cumulative time (in ticks) in various power states

---------- End Simulation Statistics   ----------
